Version 4
SHEET 1 880 680
WIRE -64 112 -144 112
WIRE 80 112 16 112
WIRE 192 112 160 112
WIRE 224 112 192 112
WIRE 336 112 304 112
WIRE 368 112 336 112
WIRE 480 112 448 112
WIRE 512 112 480 112
WIRE 640 112 592 112
WIRE -144 160 -144 112
WIRE 192 192 192 112
WIRE 336 192 336 112
WIRE 480 192 480 112
WIRE 192 320 192 256
WIRE 336 320 336 256
WIRE 336 320 192 320
WIRE 480 320 480 256
WIRE 480 320 336 320
FLAG 480 320 0
FLAG -144 240 0
SYMBOL ind 64 128 R270
WINDOW 0 32 56 VTop 2
WINDOW 3 5 56 VBottom 2
SYMATTR InstName L1
SYMATTR Value 50.8n
SYMBOL ind 208 128 R270
WINDOW 0 32 56 VTop 2
WINDOW 3 5 56 VBottom 2
SYMATTR InstName L2
SYMATTR Value 105n
SYMBOL ind 352 128 R270
WINDOW 0 32 56 VTop 2
WINDOW 3 5 56 VBottom 2
SYMATTR InstName L3
SYMATTR Value 105n
SYMBOL ind 496 128 R270
WINDOW 0 32 56 VTop 2
WINDOW 3 5 56 VBottom 2
SYMATTR InstName L4
SYMATTR Value 50.8n
SYMBOL cap 176 192 R0
SYMATTR InstName C1
SYMATTR Value 31.2p
SYMBOL cap 320 192 R0
SYMATTR InstName C2
SYMATTR Value 35.6p
SYMBOL cap 464 192 R0
SYMATTR InstName C3
SYMATTR Value 31.2p
SYMBOL voltage -144 144 R0
WINDOW 123 24 124 Left 2
WINDOW 39 0 0 Left 2
SYMATTR InstName V1
SYMATTR Value ""
SYMATTR Value2 AC 10
SYMBOL res 32 96 R90
WINDOW 0 0 56 VBottom 2
WINDOW 3 32 56 VTop 2
SYMATTR InstName R1
SYMATTR Value 50
SYMBOL res 736 96 R90
WINDOW 0 0 56 VBottom 2
WINDOW 3 32 56 VTop 2
SYMATTR InstName R2
SYMATTR Value 50
TEXT 74 344 Left 2 !.ac oct 100 1 300Meg
